real-data-new/processed_file/inventories/test_cases_v36/branches.csv
from_bus,to_bus,circuit_id,status,P_MW,Q_Mvar,loading_percent,RATEA,RATEB,RATEC,R,X,B,flow_source
40,50,1,1,100.00369262695312,22.129419326782227,,0.0,0.0,0.0,-0.0,0.0010000000474974513,0.0,psspy_brnflo_brnmsc
700,800,1,1,200.00865173339844,330.330322265625,,0.0,0.0,0.0,-0.0,0.0001890359999379143,0.0,psspy_brnflo_brnmsc
800,900,1,1,200.0081024169922,330.0627136230469,,0.0,0.0,0.0,0.0007559999357908964,0.0075610000640153885,0.0,psspy_brnflo_brnmsc
51,41,1,1,-100.00369262695312,-22.033424377441406,,0.0,0.0,0.0,-0.0,0.0010000000474974513,0.0,psspy_brnflo_brnmsc
